casosCEPEL/16barras_Pes.pwf
TITU
Sistema-Teste de 16 Barras - Caso Base - Carga Pesada                           
DOPC IMPR
(Op) E (Op) E (Op) E (Op) E (Op) E (Op) E (Op) E (Op) E (Op) E (Op) E
QLIM L CREM L CTAP L STEP L NEWT L MOCT L MOCG L MOCF L RCVG L RMON L
9999
DBAR
(No) O TB(   nome   )G( V)( A)( Pg)( Qg)( Qn)( Qm)( Bc)( Pl)( Ql)( Sh)(A(Vf)
   1   1AGERADOR-1   A10302.21 350.-44.7-180. 180.                     11030
   2    DBARRA-2     C1038-.61                                         11040
   3    DBARRA-3     C1027-5.2                           47.  31. -90. 11027
   4    EBARRA-4     B1021-7.3                          106.  70.      21034
   5    EBARRA-5     B1028-5.8                           31.  20.      21040
   6    EBARRA-6     B1032-2.8                           17.  12.      21039
   7    EBARRA-7     B1031-5.9                           15.  14.      21038
   8    EBARRA-8     B1030-7.8                           39.  24.      21030
   9   1AC.SINCRONO  A1010-7.8   0.-14.7 -50.  70.                     21010
  10    DBARRA-10    C1024-9.6                           42.  30.  20. 11026
  11    DBARRA-11    C1028-9.4                           40.  28. -30. 11028
  12    DBARRA-12    C1029-8.3                          101.  56.      11025
  13    DBARRA-13    C1026-8.7                           59.  34. -30. 11022
  14    FBARRA-14    A1030-7.7                           57.  39.      11030
  15    DBARRA-15    C1030 -6.                                         11030
  16   2AGERADOR-2   A1030  0.209.1-3.54-180. 180.                     21030
9999
DLIN
(De) O  (Pa)NcEP ( R% )( X% )(Mvar)(Tap)(Tmn)(Tmx)(Phs)( Bc)(Cn)(Ce)Ns
   1       2 1            1.5         1.                     520 572  
   2       3 1      .45  4.96  84.8                          300 330  
   2       3 2      .45  4.96  84.8                          300 330  
   3      12 1      .24  2.64 45.05                          300 330  
   3      14 1           8.33      .9662   .9  1.1       -14 165 18121
   3      15 1      .79  8.38 30.63                          200 220  
   3      15 2      .79  8.38 30.63                          200 220  
   4       5 1      .69  7.37 26.95                          200 220  
   4       5 2      .69  7.37 26.95                          200 220  
   4      15 1           6.67      1.015   .9  1.1       -15 300 33021
   5       6 1       .5  5.36  19.6                          200 220  
   6       7 1       .6  6.37 23.28                          200 220  
   6      16 1            2.5         1.                     450 495  
   7       8 1      .47  5.03 18.38                          200 220  
   8       9 1           12.5         1.                     100 110  
  10       8 1            10.      .9665   .9  1.1        -8 260 28621
  10      11 1      .34  3.72  63.6                          300 330  
  11      12 1      .39  4.34  74.2                          300 330  
  12      13 1      .22  2.48  42.4                          300 330  
  12      13 2      .22  2.48  42.4                          300 330  
9999
DGLT
(G (Vmn) (Vmx)
 A   .95  1.05
 C   .95  1.08
 B   .95  1.07
99
DARE
(Ar)    (Xchg)     (      Identificacao da area       ) (Xmin) (Xmax)
   1        0.     ****** AREA 1 *******                             
   2        0.     ****** AREA 2 *******                             
9999
DGBT
(G ( kV)
 A  13.8
 D  345.
 E  230.
 F  138.
99
DGGB
(G Co Es
 A  0  1
 D  0  1
 E  0  1
 F  0  1
99
FIM
